[Format]      =  4.0
[Frequency]   =  0
[Precision]   =  1e-008
[MinAngle]    =  30
[Depth]       =  70
[LengthUnits] =  millimeters
[ProblemType] =  planar
[Coordinates] =  cartesian
[ACSolver]    =  0
[PrevSoln]    =  ""
[Comment]     =  "Switched Reluctance Motor"
[PointProps]   = 0
[BdryProps]   = 1
  <BeginBdry>
    <BdryName> = "D"
    <BdryType> = 0
    <A_0> = 0
    <A_1> = 0
    <A_2> = 0
    <Phi> = 0
    <c0> = 0
    <c0i> = 0
    <c1> = 0
    <c1i> = 0
    <Mu_ssd> = 0
    <Sigma_ssd> = 0
  <EndBdry>
[BlockProps]  = 4
  <BeginBlock>
    <BlockName> = "430 Stainless Steel"
    <Mu_x> = 409
    <Mu_y> = 409
    <H_c> = 0
    <H_cAngle> = 0
    <J_re> = 0
    <J_im> = 0
    <Sigma> = 0
    <d_lam> = 1
    <Phi_h> = 0
    <Phi_hx> = 0
    <Phi_hy> = 0
    <LamType> = 0
    <LamFill> = 1
    <NStrands> = 0
    <WireD> = 0
    <BHPoints> = 10
      0	0
      0.20039999999999999	318.31
      0.6008	636.62
      1.1020000000000001	1591.55
      1.3859999999999999	4774.6499999999996
      1.4650000000000001	7957.75
      1.667548	32902.232515999996
      1.789509	92585.397305000006
      1.878209	160685.354903
      2.0800000000000001	318310
  <EndBlock>
  <BeginBlock>
    <BlockName> = "Air"
    <Mu_x> = 1
    <Mu_y> = 1
    <H_c> = 0
    <H_cAngle> = 0
    <J_re> = 0
    <J_im> = 0
    <Sigma> = 0
    <d_lam> = 0
    <Phi_h> = 0
    <Phi_hx> = 0
    <Phi_hy> = 0
    <LamType> = 0
    <LamFill> = 1
    <NStrands> = 0
    <WireD> = 0
    <BHPoints> = 0
  <EndBlock>
  <BeginBlock>
    <BlockName> = "0.2mm"
    <Mu_x> = 1
    <Mu_y> = 1
    <H_c> = 0
    <H_cAngle> = 0
    <J_re> = 0
    <J_im> = 0
    <Sigma> = 58
    <d_lam> = 0
    <Phi_h> = 0
    <Phi_hx> = 0
    <Phi_hy> = 0
    <LamType> = 3
    <LamFill> = 1
    <NStrands> = 1
    <WireD> = 0.20000000000000001
    <BHPoints> = 0
  <EndBlock>
  <BeginBlock>
    <BlockName> = "M-19 Steel"
    <Mu_x> = 4416
    <Mu_y> = 4416
    <H_c> = 0
    <H_cAngle> = 0
    <J_re> = 0
    <J_im> = 0
    <Sigma> = 1.8999999999999999
    <d_lam> = 0.63500000000000001
    <Phi_h> = 0
    <Phi_hx> = 0
    <Phi_hy> = 0
    <LamType> = 0
    <LamFill> = 0.97999999999999998
    <NStrands> = 0
    <WireD> = 0
    <BHPoints> = 47
      0	0
      0.050000000000000003	15.120714
      0.10000000000000001	22.718292000000002
      0.14999999999999999	27.842732999999999
      0.20000000000000001	31.871434000000001
      0.25	35.365043999999997
      0.29999999999999999	38.600588000000002
      0.34999999999999998	41.736201999999999
      0.40000000000000002	44.873978999999999
      0.45000000000000001	48.087806999999998
      0.5	51.437235999999999
      0.55000000000000004	54.975220999999998
      0.59999999999999998	58.752992999999996
      0.65000000000000002	62.823644000000002
      0.69999999999999996	67.245284999999996
      0.75	72.084406000000001
      0.80000000000000004	77.420100000000005
      0.84999999999999998	83.350020999999998
      0.90000000000000002	89.999611999999999
      0.94999999999999996	97.537352999999996
      1	106.20140600000001
      1.05	116.34846400000001
      1.1000000000000001	128.54732899999999
      1.1499999999999999	143.76543100000001
      1.2	163.75416899999999
      1.25	191.86815799999999
      1.3	234.833507
      1.3500000000000001	306.50976900000001
      1.3999999999999999	435.255202
      1.45	674.911968
      1.5	1108.3255690000001
      1.55	1813.085468
      1.6000000000000001	2801.2174209999998
      1.6499999999999999	4053.6531169999998
      1.7	5591.10689
      1.75	7448.318413
      1.8	9708.81567
      1.8500000000000001	12486.931615
      1.8999999999999999	16041.483644
      1.95	21249.420623999998
      2	31313.495878000002
      2.0499999999999998	53589.446877000002
      2.1000000000000001	88477.484601000004
      2.1499999999999999	124329.41054
      2.2000000000000002	159968.5693
      2.25	197751.604272
      2.2999999999999998	234024.75134700001
  <EndBlock>
[CircuitProps]  = 4
  <BeginCircuit>
    <CircuitName> = "A+"
    <TotalAmps_re> = 20
    <TotalAmps_im> = 0
    <CircuitType> = 1
  <EndCircuit>
  <BeginCircuit>
    <CircuitName> = "A-"
    <TotalAmps_re> = -20
    <TotalAmps_im> = 0
    <CircuitType> = 1
  <EndCircuit>
  <BeginCircuit>
    <CircuitName> = "B+"
    <TotalAmps_re> = 0
    <TotalAmps_im> = 0
    <CircuitType> = 1
  <EndCircuit>
  <BeginCircuit>
    <CircuitName> = "B-"
    <TotalAmps_re> = 0
    <TotalAmps_im> = 0
    <CircuitType> = 1
  <EndCircuit>
[NumPoints] = 65
0	0	0	0
-9.4999999999999005	9.1038288019262836e-015	0	1
9.4999999999999005	-9.1038288019262836e-015	0	1
31	0	0	0
-31	0	0	0
73	0	0	0
-73	0	0	0
48.913188405582396	13.15	0	0
-48.913188405582389	13.15	0	0
-48.913188405582396	-13.15	0	0
48.913188405582389	-13.15	0	0
28.072718072890623	13.15	0	0
-28.072718072890627	13.15	0	0
-28.072718072890623	-13.15	0	0
28.072718072890627	-13.15	0	0
1.8982025386783976e-015	31	0	0
-13.149999999999999	28.072718072890623	0	0
-13.150000000000002	-28.072718072890627	0	0
-1.8982025386783976e-015	-31	0	0
13.149999999999999	-28.072718072890623	0	0
13.150000000000002	28.072718072890627	0	0
-13.150000000000004	-48.913188405582389	0	0
13.150000000000004	48.913188405582389	0	0
-13.149999999999997	48.913188405582396	0	0
13.149999999999997	-48.913188405582396	0	0
-13.14999999999988	-26.964374645075296	0	1
-13.14999999999997	-16.373072405629863	0	1
26.072718072890243	-13.149999999999935	0	1
13.14999999999988	26.964374645075296	0	1
-26.072718072890265	13.149999999999938	0	1
13.14999999999997	16.373072405629863	0	1
18.750167312561128	-9.4568084336610418	0	1
-18.750167312561128	9.4568084336610418	0	1
-14	44	0	0
-22	44	0	0
14	44	0	0
22	44	0	0
22	32	0	0
14	32	0	0
-14	32	0	0
-22	32	0	0
-44	-21.999999999999996	0	0
-44	-13.999999999999996	0	0
-32	-13.999999999999998	0	0
-32	-21.999999999999996	0	0
-44	14.000000000000004	0	0
-44	22.000000000000004	0	0
-32	22.000000000000004	0	0
-32	14.000000000000002	0	0
21.999999999999993	-44	0	0
13.999999999999995	-44	0	0
13.999999999999996	-32	0	0
21.999999999999996	-32	0	0
-14.000000000000005	-44	0	0
-22.000000000000007	-44	0	0
-22.000000000000004	-31.999999999999996	0	0
-14.000000000000004	-32	0	0
44.000000000000007	21.999999999999993	0	0
44	13.999999999999991	0	0
32	13.999999999999995	0	0
32.000000000000007	21.999999999999993	0	0
44	-14.000000000000009	0	0
43.999999999999993	-22.000000000000007	0	0
31.999999999999996	-22.000000000000007	0	0
31.999999999999996	-14.000000000000005	0	0
[NumSegments] = 44
8	12	-1	0	0	0
10	14	-1	0	0	0
11	7	-1	0	0	0
13	9	-1	0	0	0
21	17	-1	0	0	0
22	20	-1	0	0	0
16	23	-1	0	0	0
19	24	-1	0	0	0
25	26	-1	0	0	1
27	31	-1	0	0	1
30	28	-1	0	0	1
32	29	-1	0	0	1
34	33	-1	0	0	0
33	39	-1	0	0	0
39	40	-1	0	0	0
40	34	-1	0	0	0
35	36	-1	0	0	0
36	37	-1	0	0	0
37	38	-1	0	0	0
38	35	-1	0	0	0
41	42	-1	0	0	0
42	43	-1	0	0	0
43	44	-1	0	0	0
44	41	-1	0	0	0
45	46	-1	0	0	0
46	47	-1	0	0	0
47	48	-1	0	0	0
48	45	-1	0	0	0
49	50	-1	0	0	0
50	51	-1	0	0	0
51	52	-1	0	0	0
52	49	-1	0	0	0
53	54	-1	0	0	0
54	55	-1	0	0	0
55	56	-1	0	0	0
56	53	-1	0	0	0
57	58	-1	0	0	0
58	59	-1	0	0	0
59	60	-1	0	0	0
60	57	-1	0	0	0
61	62	-1	0	0	0
62	63	-1	0	0	0
63	64	-1	0	0	0
64	61	-1	0	0	0
[NumArcSegments] = 20
5	6	180	10	1	0	0
6	5	180	10	1	0	0
7	22	59.904390358402871	10	0	0	0
23	8	59.904390358402885	10	0	0	0
9	21	59.904390358402871	10	0	0	0
24	10	59.904390358402885	10	0	0	0
3	11	25.099628327050851	10	0	0	0
12	4	25.099628327050848	10	0	0	0
4	13	25.099628327050851	10	0	0	0
14	3	25.099628327050848	10	0	0	0
15	16	25.099628327050851	10	0	0	0
17	18	25.099628327050848	10	0	0	0
18	19	25.099628327050851	10	0	0	0
20	15	25.099628327050848	10	0	0	0
25	27	90	10	0	0	1
28	29	90	10	0	0	1
31	30	77.994868219623854	10	0	0	1
32	26	77.994868219623854	10	0	0	1
1	2	180	10	0	0	0
2	1	180	10	0	0	0
[NumHoles] = 1
4	2	0
[NumBlockLabels] = 11
26	52	4	2	0	0	0	1	0
18	38	3	2	1	0	0	70	0
-18	38	3	2	2	0	0	70	0
38	18	3	2	3	0	0	70	0
38	-18	3	2	4	0	0	70	0
18	-38	3	2	1	0	0	70	0
-18	-38	3	2	2	0	0	70	0
-38	-18	3	2	4	0	0	70	0
-38	18	3	2	3	0	0	70	0
-1.5987211554602254e-014	-17.999999999999833	4	2	0	0	1	1	0
32	30	2	2	0	0	0	1	0
